Circuit: * U:\Windows\Bureau\capteur\LT\LTC_suite.asc

Direct Newton iteration for .op point succeeded.

Date: Mon Mar 31 16:45:07 2025
Total elapsed time: 0.157 seconds.

tnom = 27
temp = 27
method = modified trap
totiter = 8354
traniter = 8332
tranpoints = 4167
accept = 2691
rejected = 1476
matrix size = 16
fillins = 5
solver = Normal
Avg thread counts: 1.2/1.4/1.4/1.2
Matrix Compiler1: 728 bytes object code size  0.1/0.1/[0.1]
Matrix Compiler2: off  [0.1]/0.2/0.1

